Version 4
SHEET 1 1364 680
WIRE 624 -32 -384 -32
WIRE 624 0 624 -32
WIRE 1200 0 624 0
WIRE -112 16 -272 16
WIRE -16 16 -64 16
WIRE 32 16 -16 16
WIRE 112 16 32 16
WIRE 448 16 352 16
WIRE -272 32 -272 16
WIRE 448 32 448 16
WIRE 1200 48 1200 0
WIRE -64 64 -64 16
WIRE 32 64 32 16
WIRE -112 80 -112 16
WIRE 624 96 624 0
WIRE 688 96 624 96
WIRE 816 96 688 96
WIRE 1024 96 944 96
WIRE -272 128 -272 112
WIRE -112 128 -272 128
WIRE 1024 128 1024 96
WIRE 1200 144 1200 128
WIRE 1360 144 1200 144
WIRE -384 160 -384 -32
WIRE -64 160 -64 144
WIRE -64 160 -384 160
WIRE 32 160 32 144
WIRE 80 160 32 160
WIRE 1200 160 1200 144
WIRE -64 176 -64 160
WIRE 32 176 32 160
WIRE 352 176 352 16
WIRE 112 192 112 16
WIRE 272 192 112 192
WIRE 816 224 816 176
WIRE 944 224 944 96
WIRE 944 224 816 224
WIRE 1024 224 1024 208
WIRE 272 256 144 256
WIRE 144 272 144 256
WIRE 1200 288 1200 240
WIRE -64 304 -64 256
WIRE -32 304 -64 304
WIRE 32 304 32 256
WIRE 32 304 -32 304
WIRE 544 304 512 304
WIRE 1024 320 1024 304
WIRE -32 336 -32 304
WIRE 272 352 144 352
WIRE 272 416 64 416
WIRE 1024 416 1024 400
WIRE 432 432 432 368
WIRE 352 528 352 432
WIRE 1024 528 1024 496
WIRE 64 608 64 416
WIRE 1360 608 1360 144
WIRE 1360 608 64 608
FLAG -32 336 0
FLAG -16 16 Vb
FLAG 352 528 0
FLAG 80 160 0
FLAG 1200 288 0
FLAG 432 512 0
FLAG 1024 528 0
FLAG 448 112 0
FLAG 688 160 0
SYMBOL res 16 48 R0
SYMATTR InstName R2
SYMATTR Value 320
SYMBOL res 16 160 R0
SYMATTR InstName R3
SYMATTR Value 320
SYMBOL res -80 160 R0
SYMATTR InstName R4
SYMATTR Value 320
SYMBOL strain-gauge -80 48 R0
SYMATTR SpiceLine R=320 L=0.32 k=1.76 n=32
SYMATTR InstName U1
SYMBOL voltage -272 16 R0
WINDOW 123 0 0 Left 0
WINDOW 39 0 0 Left 0
SYMATTR InstName V2
SYMATTR Value SINE(0 1u 5)
SYMBOL INA122 256 256 R0
SYMATTR InstName U2
SYMBOL voltage 1024 112 R0
WINDOW 123 0 0 Left 0
WINDOW 39 0 0 Left 0
SYMATTR InstName V3
SYMATTR Value 5
SYMBOL res 128 256 R0
SYMATTR InstName R1
SYMATTR Value 26.68
SYMBOL res 1184 32 R0
SYMATTR InstName R5
SYMATTR Value 1k
SYMBOL res 1184 144 R0
SYMATTR InstName R6
SYMATTR Value 1k
SYMBOL voltage 432 416 R0
WINDOW 123 0 0 Left 0
WINDOW 39 0 0 Left 0
SYMATTR InstName V1
SYMATTR Value 2.5V
SYMBOL voltage 1024 208 R0
WINDOW 123 0 0 Left 0
WINDOW 39 0 0 Left 0
SYMATTR InstName V4
SYMATTR Value SINE(0 200mv 50)
SYMBOL voltage 1024 304 R0
WINDOW 123 0 0 Left 0
WINDOW 39 0 0 Left 0
SYMATTR InstName V5
SYMATTR Value SINE(0 200mv 100)
SYMBOL voltage 1024 400 R0
WINDOW 123 0 0 Left 0
WINDOW 39 0 0 Left 0
SYMATTR InstName V6
SYMATTR Value SINE(0 200mv 1k)
SYMBOL voltage 448 16 R0
WINDOW 123 0 0 Left 0
WINDOW 39 0 0 Left 0
SYMATTR InstName V7
SYMATTR Value 5
SYMBOL ind 800 80 R0
SYMATTR InstName L1
SYMATTR Value 10µ
SYMATTR SpiceLine Rser=10
SYMBOL cap 672 96 R0
SYMATTR InstName C1
SYMATTR Value 1000µ
SYMATTR SpiceLine Rser=20m
TEXT -352 272 Left 2 !.lib strain-gauge.LIB
TEXT -352 224 Left 2 !.tran 0 1 0 10us
TEXT -352 312 Left 2 !.lib INA122.LIB
